72
Coordinates from ORCA-job /home/mchrnwsk/theozymes/docking/output_2025-06-17_12-00-00/arrangement_7/pull/pull E -105.109273036360
  C           1.38240647827255     -0.99706353840071      0.02382698544820
  C          -0.76665157903747     -1.41086697880372      0.99892483457837
  C           1.70993326602762     -2.33577423360181      0.15592904212400
  C          -0.43986116875769     -2.75312696962444      1.12116951592341
  C           0.78891257126775     -3.22163280250306      0.69097232948374
  C           0.13039344624743     -0.52619961608835      0.42152321403586
  O           0.33971640782350      1.39668131527478     -1.02504162767133
  C          -0.10811116678928      0.96930079863519      0.23149209815805
  C          -0.82096282124309      3.42550144898214      1.59906269195702
  C          -3.23642773123938      3.48151994305432      2.92630970568041
  C          -5.18442211066198      1.44020807751422      2.47823826414220
  C          -0.06437162456760      5.52598762795605      2.70987602334691
  C          -2.59596482136468      5.54212735672248      4.17532680461142
  C          -1.07482003123320      4.44862846575306      2.49308027067539
  C          -2.29832424947713      4.46476059639427      3.18719469014036
  O          -1.58385866741399      0.04308122893094     -2.12923421002328
  O          -5.65841027317527     -1.62336793412562     -1.10909993892711
  C          -2.52200766816200     -0.02295446660382     -1.28860074699483
  C          -4.79158540636258     -0.86677056127154     -0.76419426522649
  C          -1.74693945527166      2.41203562118885      1.35611055238111
  C          -3.00005195856793      2.46007820471433      2.00798804076207
  N          -3.94799539595364      1.49782787840642      1.73415131927474
  C          -2.55426213855591      0.68168182077667     -0.04394569329205
  C          -3.80449861531917      0.69131245969789      0.63932313187316
  N          -3.60814027113072     -0.77333813757449     -1.56238610039111
  N          -4.82068894552418     -0.06191431642294      0.30969598008837
  N          -1.48224936125994      1.36816609209916      0.48689627469845
  H          -0.39489842503110      1.16900815308063     -1.64153954729050
  H           2.11996508112876     -0.28610228558628     -0.32855359981763
  H          -1.72010045822037     -1.07373716779442      1.37358312692356
  H           2.68796680509286     -2.68211843419464     -0.14171553087033
  H          -1.15063586062753     -3.43059288773611      1.56758855523852
  H           1.03791688185455     -4.26577045071922      0.79531130745727
  H          -3.64357378121577     -1.25432359375054     -2.45393404545540
  H          -5.73324669047931      0.56832074216294      2.12941431115431
  H          -4.97399273616277      1.34928213728116      3.54352493983135
  H          -5.78789870050447      2.33074193536689      2.29588324339961
  H           0.10247347588294      3.44738688040076      1.04249335075133
  H          -4.18106414696033      3.52470818497481      3.44179478623349
  H          -0.49083741418572      6.50192141911641      2.48330283240520
  H           0.25476315230363      5.54367851024873      3.75112559445156
  H           0.80894149916896      5.37456058506901      2.08210884181590
  H          -1.84606349047695      5.55223578555880      4.96493089393615
  H          -2.57373939282142      6.51875014010821      3.69362022049522
  H          -3.57362415314650      5.40042023479124      4.62640997554745
  H           0.52006029672344      1.47920181097589      0.97268972709878
  C          -3.81066441856311      3.96542684404776     -1.80690072460084
  C          -4.86343652225464      3.75299938767322     -0.73343235872097
  O          -2.72144613388368      3.06221211064373     -1.58718731182382
  H          -3.44333237650258      4.99832208735512     -1.77096328924050
  H          -4.24310152972074      3.77970897650380     -2.79819231049815
  H          -5.20750357402750      2.72181246793410     -0.74237857213778
  H          -4.44802234491878      3.98402165851524      0.24457880834876
  H          -5.70940886955695      4.40717328155435     -0.92228449655807
  H          -2.03074623437757      3.26704260109916     -2.22544439445422
  C           0.18366875149688     -4.73051971389595     -6.23480299133595
  C           0.67561906044242     -4.24391201339470     -4.86960218587777
  C           0.34766253523142     -2.76967096903031     -4.58621232188612
  C           0.92082711519624     -2.34597009718523     -3.23447083676117
  N           0.66334607417890     -0.91647687476705     -2.90774261150526
  H           0.48372977473201     -2.95001894679135     -2.43755803014923
  H           2.00068079581295     -2.51078567117933     -3.23373012309623
  H           0.77390652891094     -2.15168059284080     -5.37903030594884
  H          -0.73429724519559     -2.63113958618334     -4.59163246903888
  H          -0.89608406094498     -4.63315071285668     -6.31141766113028
  H           0.64056587858383     -4.15482949362323     -7.03558093994600
  H           0.44573718698857     -5.77500059875527     -6.36843416500240
  H           0.22665594042195     -4.86103397770915     -4.08935649317881
  H           1.75766917498558     -4.37945285011678     -4.81697509227450
  H           1.00100222407421     -0.30513934379171     -3.65478015157237
  H           1.11741946014486     -0.65645819765902     -2.01253986922888
  H          -0.37293584214779     -0.70734085598108     -2.75133727254454
