61
Coordinates from ORCA-job /home/mchrnwsk/theozymes/docking/output_2025-06-17_12-00-00/arrangement_5/pull/pull E -98.560068298880
  C          -2.28290643585426     -1.65928008887792     -0.13591942577004
  C          -2.29826221381814     -1.24982681501160     -2.49982117248191
  C          -2.69062014901710     -2.96214242234549     -0.35846830867685
  C          -2.70224423987087     -2.55545537534169     -2.71772594950724
  C          -2.91107307095934     -3.41034501562387     -1.64992332907176
  C          -2.10663442175084     -0.78956281603626     -1.20555786706931
  O          -1.82193699409731      1.49115071640948     -2.04191053452332
  C          -1.67429443013896      0.64743849134322     -0.96037295655417
  C          -0.48193868663876      2.51318801198337      0.92523297938299
  C          -1.45246010423289      2.53312583108875      3.50605598920427
  C          -3.89019287028300      1.18022274661951      4.15125244543160
  C           1.50861077962760      3.87136069391982      1.56686902509298
  C           0.51190856019539      3.83921218712080      4.31935662461463
  C           0.23676143543838      3.16519178975124      1.91036480663210
  C          -0.24848113946128      3.15922671833338      3.22689279900716
  O          -4.39538610785621      0.75618700150605     -1.82060716270639
  O          -7.34483592038284     -0.50270936181619      1.36632970786605
  C          -4.61975059502179      0.57398259161227     -0.61739503402774
  C          -6.25575674612105     -0.03249597446132      1.14707566407457
  C          -1.67753909985181      1.85294905169571      1.20461036294865
  C          -2.19445227279013      1.88875585274587      2.51952813206559
  N          -3.39797523463637      1.27299424753548      2.79756444218508
  C          -3.69375865002171      0.86487633187829      0.45300574977762
  C          -4.20634894523640      0.84265317025979      1.77383722906185
  N          -5.82868019364875      0.11589935038235     -0.19603240943444
  N          -5.39628204494722      0.39933372424182      2.09000399564731
  N          -2.37491422484871      1.17571414836901      0.22513857133161
  H          -2.76840165759614      1.45264285998204     -2.29811109097124
  H          -2.10114242903341     -1.32502310021621      0.87658178909342
  H          -2.13795030875132     -0.58675111092548     -3.33483411054180
  H          -2.83706767381182     -3.62646696153117      0.47990877720327
  H          -2.85760650710064     -2.90011637655230     -3.72882551089539
  H          -3.23743166347601     -4.42521837492230     -1.82044530859827
  H          -6.51547675706203     -0.10593400473566     -0.90733472352029
  H          -4.82065073090550      0.61756367095146      4.11224800746117
  H          -3.16456793997063      0.66309595228691      4.77968781935253
  H          -4.08978089950036      2.17236367715995      4.55970231898067
  H          -0.12780268181821      2.55189677723749     -0.09231036259012
  H          -1.82187035540272      2.55888629867089      4.51760180304324
  H           1.44311438223684      4.92639235601514      1.82908206439986
  H           2.34395999029101      3.44541189611735      2.12142707867255
  H           1.72028202385244      3.79078102829423      0.50466870150691
  H           1.51308489786013      3.41914015341835      4.40579212982044
  H           0.62003780011413      4.90148880356434      4.10385008405068
  H           0.00518572510881      3.72921867374210      5.27401601170103
  H          -0.60460088013355      0.63992846247209     -0.71250483689694
  C          -5.36191346390947     -0.34048735835486     -5.29098549484406
  O          -4.34215522540384      0.36167479604832     -4.60745913505334
  H          -5.46933347746337     -1.35923400633608     -4.90538101846370
  H          -6.32356349670370      0.17542965832507     -5.21268208818152
  H          -5.06698037409141     -0.38418183153455     -6.33819839599946
  H          -4.55414285313545      0.42083639906577     -3.66262845383726
  C          -1.54487149961859      1.15118399079515     -7.45152026223036
  C          -0.86517181700335      1.52444187204458     -6.13846938827633
  N          -1.61817908335344      1.34738203237224     -5.03152806498993
  O           0.27682980912117      1.93405526605086     -6.08673212098328
  H          -2.48888684600074      1.68166926632695     -7.54626941443706
  H          -0.89075321804910      1.40947353812459     -8.27780892404175
  H          -1.74137932936351      0.08161894821986     -7.46567750865192
  H          -2.58195498284941      1.04822320757986     -5.07232097031841
  H          -1.23673446085236      1.60956875296114     -4.13570377546427
