71
Coordinates from ORCA-job /home/mchrnwsk/theozymes/docking/output_2025-06-17_12-00-00/arrangement_1/pull/pull E -107.832677562000
  C          -2.60044786862980     -1.16774275470607      2.30858320845881
  C          -1.34268532052541     -1.84673829725742      0.38306798098374
  C          -3.11199761922775     -2.44670544420380      2.42637448582220
  C          -1.85563033935906     -3.12683047628936      0.50469763755591
  C          -2.74724813826910     -3.42737244155719      1.51864557070000
  C          -1.72603783922861     -0.85630973205231      1.27346531870938
  O          -0.51648718917770      0.81522933316870     -0.04073110803788
  C          -1.19350959469398      0.56328719571984      1.14308230814801
  C          -1.02529299290519      3.07672283147620      2.64177563805755
  C          -3.33568830341610      3.96440409845102      3.85352415148834
  C          -5.86158138828501      2.79944412782423      3.19848853107291
  C           0.37976913665072      4.65906862645183      3.96334113401825
  C          -2.06678781996524      5.56135424834715      5.28788934501383
  C          -0.94293706611365      4.06495847578401      3.60450269191189
  C          -2.11989147822043      4.50645120209315      4.23319913405726
  O          -2.74355710332169      0.28552476758838     -1.28611092429404
  O          -7.17435084789447      0.04057654889343     -0.43376145184849
  C          -3.67774932187975      0.52557351969451     -0.49143769736915
  C          -6.11890460723952      0.47374268659985     -0.05437152898792
  C          -2.24322542990744      2.50673192403203      2.27237569546896
  C          -3.43319984939834      2.97932776393537      2.87281935625495
  N          -4.64777219882851      2.44299661358781      2.50188212200898
  C          -3.53803284638890      1.22062656899942      0.75967018587696
  C          -4.73757032827711      1.63241097502936      1.40024848457435
  N          -4.94569970564690      0.17529038116785     -0.80723706968835
  N          -5.93046050396392      1.25477557673430      1.02396018698569
  N          -2.31365125432540      1.50070522607541      1.32843080791640
  H          -1.19732469349042      0.65562321052187     -0.74700218838182
  H          -2.88227412376363     -0.41012382666330      3.02676448397345
  H          -0.65012725299375     -1.61597859857456     -0.41129058764899
  H          -3.79755577004404     -2.67660853059756      3.22708641245729
  H          -1.55779645388427     -3.88753240543305     -0.20071361111785
  H          -3.15360934256028     -4.42289968957249      1.60756724310353
  H          -5.10019008235849     -0.30814074535475     -1.68447235739488
  H          -6.66579050091625      2.20998185440336      2.76342085608282
  H          -5.76544487727201      2.57357356648298      4.26051419449426
  H          -6.08483865864758      3.85914321753158      3.06663164261787
  H          -0.12435198797017      2.76485763879699      2.13739857456250
  H          -4.22978173305276      4.32846658939109      4.33063508495619
  H           0.37571079604861      5.73393734197144      3.78880857928964
  H           0.59472761550550      4.50015325760074      5.01915654168425
  H           1.17845139327962      4.21469483481305      3.37619551935386
  H          -1.43416461751952      5.24241587844199      6.11502569719632
  H          -1.64105632266218      6.48024254584761      4.88700355689257
  H          -3.05858024810192      5.77875061639691      5.67321978679809
  H          -0.48339495052669      0.74257035132583      1.95926312618358
  C          -2.09762054853464     -2.13725517836031     -3.94801659460831
  O          -1.45721712369899     -1.40957408983427     -2.90742252376864
  H          -2.91633763650056     -2.74080831236601     -3.55378201594277
  H          -2.48351506071881     -1.46457148090034     -4.71875423062524
  H          -1.35145844539603     -2.80033032805277     -4.38387987123386
  H          -2.11126480429588     -0.87036776104361     -2.41835617879986
  C           3.81716397807348     -2.14266994484421     -7.51780129573329
  C           2.67229800528846     -1.96474812887801     -6.51416049636516
  C           3.07345075550586     -1.09417369280792     -5.32115097462341
  N           1.96100903995935     -0.94438326536720     -4.38679560723869
  C           1.98397627595106     -0.25150399246635     -3.24780921082324
  N           0.90443147507544     -0.18063587192188     -2.48802406111985
  N           3.10604259278313      0.37553617412362     -2.87284310017611
  H           3.92126392999039     -1.56019966878172     -4.80633007777533
  H           3.38045137121577     -0.10678988302418     -5.68463190367929
  H           4.67217998135747     -2.61791765463736     -7.04446382429936
  H           3.48806809466816     -2.76698916417610     -8.34190397969901
  H           4.13000833819090     -1.18168443437369     -7.91726620992708
  H           1.82216051632717     -1.50412226560772     -7.02119886133519
  H           2.36182083233328     -2.94631695324388     -6.15087289462402
  H           0.89249488040264      0.32337204067260     -1.61228642432201
  H           3.93695989848093      0.34375981061281     -3.43525309768926
  H           3.12658066604215      0.90307674955350     -2.01785826666709
  H           0.02990892086602     -0.66518400966269     -2.74101179643159
  H           1.09484369600172     -1.39854934752973     -4.63549325245371
