71
Coordinates from ORCA-job /home/mchrnwsk/theozymes/docking/output_2025-06-17_12-00-00/arrangement_11/pull/pull E -107.005271666270
  C          -1.81689372845259     -1.22068255329057      2.97061378240136
  C          -0.07564166238797     -2.10831100951902      1.59316713372465
  C          -2.20031063844457     -2.50382974404234      3.31294096603146
  C          -0.46267332366247     -3.39167742502279      1.93716484545647
  C          -1.53130783740312     -3.59134646634201      2.78626944461562
  C          -0.76131249319747     -1.01745812201359      2.09517214952128
  O           0.59533825279143      0.48970274340046      0.73322588730888
  C          -0.39292813942260      0.40494392978646      1.69536325688633
  C          -1.10132802619533      3.19279953941036      2.24765483156721
  C          -3.79285697846174      3.75015027720496      2.47453511579055
  C          -5.73701948087045      1.83150594966533      1.62084081792972
  C          -0.47217994634715      5.36661363872110      3.28782279952028
  C          -3.32337108149750      5.92509582330546      3.59586771577190
  C          -1.49494556505721      4.38381200195538      2.82124339022800
  C          -2.86617566560259      4.65823098588750      2.95510441528342
  O          -0.98598893652035     -0.73450449410315     -1.03083245959872
  O          -5.33033739887590     -1.88710097570612     -1.29868674037908
  C          -2.13803764362485     -0.57230473824450     -0.56581187434065
  C          -4.54681211354047     -1.13338795443804     -0.78787743908780
  C          -2.02992307137168      2.26159135384308      1.78533197443859
  C          -3.40730997665444      2.55654271094440      1.87195963832755
  N          -4.32493290239240      1.64977748252312      1.38895004086733
  C          -2.52404051173974      0.37518090562467      0.44269435872546
  C          -3.91769570799595      0.61530269307190      0.58922673019221
  N          -3.16266883848852     -1.28407002846026     -1.08883346607385
  N          -4.84764145860400     -0.10819474998213      0.02589245489671
  N          -1.62963427230040      1.06403210995367      1.23404818646546
  H           0.17083265585322      0.05342226524918     -0.03538402022534
  H          -2.33759295195155     -0.37154974472141      3.38740608699235
  H           0.76201520527759     -1.94970443636155      0.93789073039111
  H          -3.02232068894120     -2.65469003311688      3.99102673738630
  H           0.07483950610922     -4.23692699964081      1.53811784567707
  H          -1.83713406913298     -4.59241712662058      3.04777533072749
  H          -2.94511929781122     -1.98519710692530     -1.78334799901768
  H          -6.24517188106149      0.95752911449975      1.22275480452957
  H          -5.93126657587307      1.92391523982591      2.68838027549532
  H          -6.10236443474640      2.71876725319006      1.10261753731967
  H          -0.05086181711532      2.99298167453030      2.11363333903275
  H          -4.83907624565454      3.98656484475293      2.56598095849803
  H          -0.60491559482617      6.32438601366028      2.78706832381675
  H          -0.57285693595798      5.54049079966863      4.35880578442735
  H           0.53271737471186      5.00598576286884      3.08792358850127
  H          -2.94491220550596      5.99357836587165      4.61510613690167
  H          -2.94582573370751      6.78854526629194      3.05002813536051
  H          -4.40786113236490      5.97989957991420      3.62418619816744
  H          -0.04117653036550      0.94814634968637      2.57807965792731
  C          -0.61875013787851      4.33541349272143     -2.06483415558295
  S          -0.49650291270162      2.60628660980916     -1.46281055815227
  H           0.26553786222476      4.84892791587290     -1.70371259347399
  H          -0.64113213601959      4.33808286244559     -3.15020268365228
  H          -1.51113819671890      4.79188784417921     -1.65253913199670
  H          -1.62311210333788      2.19103527478977     -2.03799563503372
  C           1.27807428274893     -2.86105525808051     -7.33793266372633
  C           1.03070663306419     -1.88804312562818     -6.18886500261467
  C           1.19781166746616     -2.57211946430345     -4.82449038155342
  N           0.98346985091577     -1.69322285330412     -3.68779130839550
  C           1.89424405459057     -0.89914483544763     -3.11415534793917
  N           1.58762064711762     -0.27019584731220     -1.99403092168271
  N           3.11848478849723     -0.74486742524990     -3.65329342756651
  H           0.46757762173274     -3.38421142681974     -4.74167399445254
  H           2.19886768316361     -3.01858946292454     -4.75145563784536
  H           0.57185381887216     -3.68769289465948     -7.28379197038202
  H           1.14955404494496     -2.34935627073734     -8.28875847228870
  H           2.29126423298038     -3.25899601258258     -7.29986652082336
  H           1.72346756044348     -1.04608544388205     -6.27814870727013
  H           0.01509039080438     -1.49144485735881     -6.25952857137620
  H           2.20470404358560      0.40304114160547     -1.57777245748797
  H           3.38354220389875     -1.23855337484598     -4.48363695834755
  H           3.81473666255505     -0.20181602604780     -3.19116802107711
  H           0.65681380246815     -0.35933990093488     -1.59989876124331
  H           0.07457413396593     -1.70748162806082     -3.24452352441476
