74
Coordinates from ORCA-job /home/mchrnwsk/theozymes/docking/output_2025-06-17_12-00-00/arrangement_6/pull/pull E -110.999889540190
  C          -2.77272078187041     -1.26980755450181      2.50467040869089
  C          -1.34756183920490     -2.11372635181129      0.77132559140336
  C          -3.38950788202315     -2.50296881084697      2.59771069767297
  C          -1.96306346554400     -3.34837872671725      0.86932174848419
  C          -2.99187292395163     -3.54285989272856      1.77324779653861
  C          -1.76045630451814     -1.06370987341455      1.57465166980614
  O          -0.33073526792907      0.45963608752093      0.31106755229745
  C          -1.10147538811502      0.30394904542030      1.45424026121668
  C          -0.81139186289871      2.84727736074349      2.87820688708172
  C          -3.11310204533510      4.00675374726013      3.85982175166711
  C          -5.68174720150951      3.04957683165596      3.04758786593740
  C           0.63416388476916      4.35661269868719      4.23929276323593
  C          -1.80884538454729      5.54799500849991      5.32290165718506
  C          -0.70835012375335      3.87013223923998      3.80174722240922
  C          -1.88286151354998      4.45057589682873      4.31423565370485
  O          -2.48701987109095      0.04291425832621     -1.07353546583928
  O          -6.97104514102340      0.31800960564362     -0.61200570434206
  C          -3.45010094949100      0.42055320633907     -0.36351761318765
  C          -5.91174826155448      0.64899761711096     -0.14998578092934
  C          -2.04725790991615      2.37707137256807      2.43404668547022
  C          -3.22925512039670      2.98884508053222      2.91513907389244
  N          -4.45750150436356      2.55360590223619      2.46426740773125
  C          -3.33905070294507      1.15495828688297      0.86500717545337
  C          -4.53958270141466      1.71353466057074      1.38461918549018
  N          -4.71655850234469      0.19902676768111     -0.78533046380904
  N          -5.73010957724391      1.45158897264997      0.91389588024836
  N          -2.14464859237226      1.33894975715519      1.52956976443525
  H          -0.99335443636819      0.35664454517807     -0.42027607633419
  H          -3.08077812818425     -0.46781301238686      3.16121603293527
  H          -0.54491724603782     -1.96192488997135      0.06743127172098
  H          -4.18249786959784     -2.65091001302909      3.31381485907248
  H          -1.64037930182159     -4.15880784449330      0.23381196466780
  H          -3.47965270013087     -4.50200964823911      1.84052415137894
  H          -4.84453750266875     -0.34229049567110     -1.63332768436815
  H          -6.50221864800740      2.51350032546016      2.57609058732015
  H          -5.68495560186738      2.86873135478484      4.12222318030566
  H          -5.79698584676690      4.11653866099830      2.85388219355722
  H           0.09199815966538      2.43050274193367      2.46199730726300
  H          -4.00214569906218      4.47622877797381      4.24605529205292
  H           0.74549935502407      5.41750006128561      4.02010029422923
  H           0.75278916008953      4.23033779002575      5.31434817358599
  H           1.42913050416625      3.81285356617829      3.73678886177198
  H          -1.27526114654221      5.21420730105743      6.21167153508508
  H          -1.26568172304186      6.40132354272388      4.91869203401198
  H          -2.80181535021630      5.87696464410998      5.61636368658896
  H          -0.43576210344815      0.44689124534951      2.31337375840396
  C          -2.32798327280960      1.58475588620994     -4.31972810273854
  C          -3.42696681041166      2.49132900833567     -3.79065741844270
  O          -1.45059647390197      1.14219105029763     -3.27927002462868
  H          -1.69473589462166      2.12581563390113     -5.02344913172513
  H          -2.76574713693580      0.71450174114931     -4.82793138016888
  H          -4.06889411023461      1.95105054766938     -3.10028756222840
  H          -2.99139691595789      3.34111925503217     -3.27155588996677
  H          -4.03759841738672      2.85474439462937     -4.61293499372085
  H          -1.97780670499555      0.73572783633170     -2.55968825513705
  C           3.78566777135458     -2.80854552486683     -7.05654593769923
  C           3.01232297624522     -2.74274444512295     -5.73518582385473
  C           3.23674369228939     -1.40769370798703     -5.00564322402809
  N           2.65565293097132     -1.36440784373697     -3.66812177604461
  C           1.52444124869910     -0.76592103135236     -3.28089674720888
  N           1.23413554409689     -0.68923977354481     -1.97612808238261
  N           0.67138294145648     -0.25522780572569     -4.14999538001626
  H           4.31531659786198     -1.24524893328597     -4.88995684696710
  H           2.84311428874920     -0.57900487346278     -5.59766458130144
  H           4.85142525083911     -2.70769258326645     -6.87932854457650
  H           3.60781094810476     -3.76102585546900     -7.54174684547560
  H           3.46421228407653     -2.01525531592475     -7.72924299218446
  H           1.94708562649796     -2.87872699836106     -5.93051426082303
  H           3.33942564732601     -3.55831290344268     -5.09032166314127
  H           0.38306919299355     -0.24890594765280     -1.65668110019391
  H           0.84674094112990     -0.32685480479289     -5.13748137510104
  H          -0.15685865328361      0.27947655690890     -3.82503998341216
  H           1.87103562402627     -1.01161669936900     -1.27455206450904
  H           3.20461394277512     -1.81626870990248     -2.95421110751743
