69
Coordinates from ORCA-job /home/mchrnwsk/theozymes/docking/output_2025-06-17_12-00-00/arrangement_2/pull/pull E -101.953586788020
  C          -0.81718990289691     -1.14446539116180      1.27054004907993
  C           0.92773460336611     -0.46980735588625     -0.22568571638453
  C          -0.24095924565363     -2.40240723058081      1.35979660028607
  C           1.50447041001418     -1.72519237006329     -0.12945862596693
  C           0.90921678811128     -2.70190677798808      0.65180832237112
  C          -0.25618963366864     -0.17837236955395      0.44971902268682
  O          -0.68136072673533      1.67513130001490     -1.04725705593407
  C          -0.80530931365728      1.23360234277644      0.27370296378026
  C          -1.77351771282516      3.55196420029040      1.74556070426576
  C          -3.91005993868527      3.18087617689149      3.44574138983895
  C          -5.43659776921373      0.77002306293775      3.36093453953520
  C          -1.28265184983385      5.79762995220041      2.71238715261712
  C          -3.51055364556426      5.37489739976663      4.56020898102745
  C          -2.08086569172792      4.53715852554178      2.66485798625913
  C          -3.15994230274540      4.33937733680969      3.54568104971409
  O          -2.40109947731467     -0.12818197031666     -1.74901624079322
  O          -5.68825986027672     -2.64076390755343      0.07236137194173
  C          -3.13853879772739     -0.34946086167908     -0.75570645983027
  C          -5.00345556561043     -1.66497246294444      0.21185337184992
  C          -2.50342110750370      2.36674743573303      1.65972849162650
  C          -3.62050434334110      2.19004582539357      2.50979152399197
  N          -4.38132143576253      1.04431043368701      2.41283048626024
  C          -3.14159839093609      0.42950362933299      0.44838996086152
  C          -4.22403157383652      0.20142125686665      1.34668826260912
  N          -4.04048594975990     -1.35187050946631     -0.79786865799247
  N          -5.05892540453338     -0.79637866388515      1.23584106483193
  N          -2.17705089353337      1.37007317731646      0.75441623852839
  H          -1.37918913206455      1.17337505938332     -1.53530263721081
  H          -1.69564342891292     -0.93479206928209      1.86065119489041
  H           1.40686655747481      0.31736007971126     -0.79091799433612
  H          -0.69354733487452     -3.14635759364680      1.99598572949127
  H           2.42783730453394     -1.93355660130597     -0.64981665614140
  H           1.35183368135455     -3.68235038955751      0.72721510465547
  H          -4.09317823258346     -1.90998575307063     -1.64232050113612
  H          -5.84753708739380     -0.20624652815333      3.11322287369537
  H          -5.03611385817660      0.76002395203884      4.37441482474772
  H          -6.22695287176822      1.51788693325508      3.28361385586845
  H          -0.96914173449445      3.73313243911900      1.05045970167963
  H          -4.74943373991139      3.05533972479910      4.10839748620534
  H          -1.92717739508388      6.66318325901372      2.56844481596404
  H          -0.80279185177957      5.90644604101899      3.68406258236303
  H          -0.51503071806686      5.80434179645562      1.94420343745899
  H          -2.65633213172831      5.58777013898618      5.20056076065322
  H          -3.78979715949067      6.30697209795359      4.07044146324285
  H          -4.33975232543936      5.04935033003997      5.18112799088543
  H          -0.18015330388052      1.89513484288462      0.88541002057574
  C           1.77091972943761      2.62509127882362     -4.21105927186921
  O           0.95861554704635      1.95673243581481     -3.24440196739231
  H           1.16799100226196      3.28673125624519     -4.83531988756880
  H           2.56009182771223      3.19829513431863     -3.72389123088899
  H           2.21783390036111      1.85130721785948     -4.83021829147622
  H           0.57561952381088      2.59341759510004     -2.62808264174928
  C          -0.09279471292792     -4.94782705279303     -5.52423681297664
  C           0.12753776445756     -3.43374195550268     -5.54227229209188
  C          -0.17929242938622     -2.74337363867565     -4.20428411269639
  C           0.10146351619030     -1.24478535895884     -4.30671756541532
  N          -0.13933231412299     -0.49880086988717     -3.04230686566150
  H           1.14417874550906     -1.09332232921117     -4.59333764596114
  H          -0.53039071124752     -0.80537075286540     -5.08013464217838
  H          -1.22516105744484     -2.90901190612157     -3.94157663072736
  H           0.44083221779814     -3.18293973536650     -3.41989310755475
  H           0.54826564911293     -5.42163880260755     -4.78529818878620
  H          -1.12670195407655     -5.18354360403721     -5.28582558455697
  H           0.13883848992239     -5.36480846398169     -6.49895214955509
  H           1.16667115057627     -3.23272725964158     -5.81044580779243
  H          -0.50426510949317     -2.99508608207734     -6.31696713916868
  H          -1.14414617341557     -0.50447423999092     -2.75750559887293
  H           0.18460542238784      0.49319882407097     -3.15179670439989
  H           0.38600346966760     -0.90773163463750     -2.25595669127365
