64
Coordinates from ORCA-job /home/mchrnwsk/theozymes/docking/output_2025-06-17_12-00-00/arrangement_14/pull/pull E -100.908117162820
  C          -3.50285217903310     -2.42483658816467      0.68990531436178
  C          -3.06060755426733     -3.12454429007676     -1.56148773470658
  C          -4.36646834162968     -3.49189767982307      0.85329122646868
  C          -3.92353468158012     -4.19360383126128     -1.39377295455078
  C          -4.58407897234594     -4.37455494654814     -0.19173159890637
  C          -2.85725218010162     -2.22717290023238     -0.52481268389736
  O          -1.50013211599951     -0.84055179688861     -2.00044315881133
  C          -1.92888429867433     -1.03407045524492     -0.70380856253247
  C          -0.58489684637679      1.09712007549677      0.82036901510818
  C          -2.11490188837694      2.41362506440318      2.70053994447042
  C          -4.96207526700912      2.15220272735689      2.69588083879304
  C           1.52767895677632      2.03691089308710      1.74868766135034
  C          -0.08948972993143      3.35102969516425      3.81366989733464
  C           0.04177347987259      1.88333498324508      1.77037089793918
  C          -0.73529966381699      2.52761446745936      2.74499287330196
  O          -4.00956905317403     -0.47351737178363     -2.62814136085657
  O          -7.92773614251844      0.64387676151148     -0.68115274288004
  C          -4.58431559694022     -0.06536044299211     -1.61564923217770
  C          -6.72548608920174      0.62562177578244     -0.56395399348583
  C          -1.97080529802046      0.95060762610916      0.78767886238640
  C          -2.75832994166655      1.65617927690428      1.72543113332034
  N          -4.13497849580882      1.56415443849892      1.66995426346870
  C          -3.93884563949165      0.35774193334341     -0.39064698558859
  C          -4.74460082405196      1.02286780682589      0.56463668496066
  N          -5.94009914034327      0.07262205553304     -1.59998771987349
  N          -6.04826764998511      1.12370443420093      0.48873379338187
  N          -2.60018654951974      0.15430262037433     -0.14975693670395
  H          -2.31261676222154     -0.63813240807324     -2.53076404032018
  H          -3.33187101141704     -1.74222437255842      1.51158912251439
  H          -2.54850298860705     -2.97627412731801     -2.49916005395459
  H          -4.87221003801399     -3.63238039060968      1.79686980414142
  H          -4.08429606008858     -4.88266272246397     -2.20932553216057
  H          -5.26599454811340     -5.20201437530325     -0.06598009502607
  H          -6.43624713825590     -0.21577108549610     -2.43515330682298
  H          -5.99241274558205      1.89873436101176      2.45513383231659
  H          -4.69247324420641      1.74802496459994      3.67222778348208
  H          -4.85606931559829      3.23861597940021      2.70653333005285
  H           0.02176041696597      0.63442841085306      0.05859428914053
  H          -2.69854953184241      2.93958553484902      3.43777449810524
  H           1.80788631870506      3.08378692261992      1.84812545506360
  H           1.97460826391036      1.49458128850943      2.58183336870140
  H           1.93874109191767      1.65340217876824      0.82018776572728
  H           0.64910689744389      2.76091642992174      4.35376577983902
  H           0.42863628841212      4.20488815550391      3.37813322854456
  H          -0.82745479735668      3.72005965706948      4.52092429557130
  H          -1.02896199400827     -1.19702454115590     -0.09554148241115
  C          -0.25037083830613      3.60504779356357     -1.86939860727039
  S          -1.34090088217056      2.19058351804366     -2.29809500518737
  H           0.62947121138852      3.16741023324256     -1.40862633013258
  H           0.02017780819099      4.13931461432788     -2.77370600171976
  H          -0.76120906884463      4.25409582047008     -1.16577173724394
  H          -2.29485879964017      2.91396161935419     -2.88587077922329
  C           4.51602555232408      1.83736990259448     -2.86323237034774
  C           3.33052241144164      1.07490940131073     -3.45866653191089
  C           2.20508818052434      0.79834440410935     -2.46272041495365
  O           2.23175423895634      1.15531290228302     -1.30074328100222
  N           1.17258985861897      0.10533761295011     -2.98118289623962
  H           4.93806448400092      1.28001405746585     -2.03126411268380
  H           5.28283666434535      1.98597256901681     -3.61864355238245
  H           4.19059651234332      2.80518850152313     -2.49058966145744
  H           2.90600393510265      1.64172537119344     -4.29154860926270
  H           3.66978395376039      0.11277972006214     -3.85101755842023
  H           1.14737830686813     -0.13370722567629     -3.95638682885204
  H           0.33688907226838     -0.09600700824378     -2.44588050588984
