68
Coordinates from ORCA-job /home/mchrnwsk/theozymes/docking/output_2025-06-17_12-00-00/arrangement_3/pull/pull E -107.859916512260
  C          -3.76946455302356     -1.77554414020001     -0.10994823567918
  C          -3.79595088428330     -1.56375492390998     -2.49891220834775
  C          -4.69478471193060     -2.80026167928662     -0.19016914408441
  C          -4.71816671687784     -2.59188744287081     -2.57551567165430
  C          -5.17657742858428     -3.20621977780126     -1.42314279632615
  C          -3.32835974882640     -1.13948107378502     -1.26378027275644
  O          -2.15080394893187      0.71253060919400     -2.33840352810856
  C          -2.31863364802581     -0.00887439340766     -1.17187568267344
  C          -0.34525165915803      1.29440973016818      0.51635474700803
  C          -1.09787944192844      2.09934273404580      3.04283667767721
  C          -3.84145832810028      2.01837409645659      3.83681200300716
  C           2.06511385123668      1.69860153225187      1.00711615876001
  C           1.27102481677839      2.52273571175355      3.70431083129575
  C           0.62683834955184      1.68971303614855      1.41687426091193
  C           0.24571644293331      2.09072018119208      2.70549927955958
  O          -4.79870307812297      1.09899996008760     -2.02577904441743
  O          -7.81524654227791      1.69385403310743      1.28119682967228
  C          -4.99971517618004      1.20441487300580     -0.81116653516577
  C          -6.64309339488169      1.60481274191233      1.00667402204461
  C          -1.69880074709091      1.28249239331908      0.85268461512216
  C          -2.08699636120416      1.71349646765473      2.14221763564977
  N          -3.42290937675392      1.72314315956205      2.48762219883960
  C          -3.97960806630963      1.19819656916510      0.21420816412561
  C          -4.38663122759027      1.56390828570810      1.52186144408114
  N          -6.26450008069958      1.38031391489441     -0.33725535610898
  N          -5.63228713835800      1.72909488303774      1.88833881357712
  N          -2.66821377763647      0.87570359165224     -0.04206813038809
  H          -3.04350445969661      1.02874477690218     -2.58975264247832
  H          -3.39207098952931     -1.47190564006686      0.85736524602368
  H          -3.44761967366883     -1.07714671603744     -3.39685537363136
  H          -5.04104070654390     -3.27971839951581      0.71328301230904
  H          -5.08471368415017     -2.90776505913982     -3.54067130926870
  H          -5.90484491919740     -4.00091396322784     -1.48364962772267
  H          -7.01366911204855      1.37942271067005     -1.01964434879145
  H          -4.92079719659076      1.88327093061499      3.86951749557266
  H          -3.35413574230266      1.33918415907169      4.53701729604832
  H          -3.60432579868938      3.05093610926291      4.10084336516742
  H          -0.04369207731986      1.01139385314109     -0.47795938108755
  H          -1.37676069861659      2.42651882619065      4.03062517685725
  H           2.47648916578934      2.70453731376910      1.08138854317822
  H           2.65350262325266      1.05308685642310      1.65792008728508
  H           2.17724417210620      1.35019036026672     -0.01535196380911
  H           1.99500525645052      1.72756911937818      3.87748857176288
  H           1.81876735789007      3.38962948409743      3.33641792992637
  H           0.80625299546009      2.78306286529949      4.65130603818118
  H          -1.34333451185550     -0.44909630714521     -0.93602733380333
  C          -6.20311489431093      1.60776227032025     -5.48588955046405
  O          -4.94200508004215      1.44323855745010     -4.87533578348930
  H          -6.86231554525274      0.75540788502187     -5.28748251847365
  H          -6.69910917245159      2.52546648248966     -5.14997929481293
  H          -6.02540961169957      1.67507759251616     -6.55816072035322
  H          -5.05281884866433      1.35195697086404     -3.91758428014670
  C           6.15148883306379     -1.70130684891507     -2.65699826172958
  C           4.69526344210820     -1.32629984875633     -2.54149361844292
  C           3.99301996565629     -1.53331961428587     -1.35847391704972
  C           2.65171372278909     -1.21793775289142     -1.24847518045263
  C           1.96317884685488     -0.67917138653086     -2.33254458117967
  O           0.63580206534093     -0.38664528974086     -2.17518718677447
  C           2.65386091963970     -0.46116342288214     -3.51745923609789
  C           3.99808623131040     -0.78498354338106     -3.61459908067483
  H           6.66153547655454     -1.55575372110067     -1.70804162903184
  H           6.24264997833677     -2.75163150030283     -2.93457251194904
  H           6.64328931218836     -1.10428199093819     -3.42082368982687
  H           4.50466420994900     -1.95184056552463     -0.50345406772330
  H           2.11740783856561     -1.38633332895436     -0.32592241812592
  H           2.13736986152327     -0.03792783553878     -4.36874942790832
  H           4.51040848570107     -0.60752464875873     -4.54932725767322
  H           0.25930453837586     -0.00702481317068     -2.97907764496107
